0,   100.00, 33, 0, 1, 60.00     / PSS(R)E 33 RAW created by rawd33  THU, JUN 25 2020  15:58
LOAD FLOW SYSTEM FOR TRANSFER TESTING
BASE CASE
     1,'NORTH-01    ', 230.0000,1,   1,   1,   1,1.01527,  -5.7432,1.03970,0.93970,1.03970,0.93970
     2,'NORTH-02    ', 230.0000,1,   1,   1,   1,1.03591, -12.5609,1.00860,0.90860,1.00860,0.90860
     3,'NORTH-03    ', 230.0000,1,   1,   1,   1,1.02242,  -7.6858,1.01750,0.91750,1.01750,0.91750
    11,'WEST--01    ', 230.0000,1,   1,   1,   1,1.01493, -11.4268,1.02950,0.92950,1.02950,0.92950
    12,'WEST--02    ', 230.0000,1,   1,   1,   1,1.06853, -19.0600,0.95970,0.85970,0.95970,0.85970
    13,'WEST--03    ', 230.0000,1,   1,   1,   1,1.02386, -18.0218,0.96290,0.86290,0.96290,0.86290
    14,'WEST--04    ', 500.0000,1,   1,   1,   1,1.02519, -15.3643,0.97420,0.87410,0.97420,0.87410
    21,'SOUTH-01    ', 230.0000,1,   1,   2,   1,1.08618,  -2.4731,1.02940,0.92940,1.02940,0.92940
    22,'SOUTH-02    ', 230.0000,1,   1,   2,   1,1.05422,  -1.7979,1.03540,0.93540,1.03540,0.93540
    23,'SOUTH-03    ', 230.0000,1,   1,   2,   1,1.02775,   1.6534,1.04560,0.94560,1.04560,0.94560
    24,'SOUTH-04    ', 500.0000,1,   1,   2,   1,1.05181,  -4.4720,1.03300,0.93300,1.03300,0.93300
    31,'EAST--01    ', 230.0000,1,   1,   2,   1,1.00740,  18.6549,1.04760,0.94770,1.04760,0.94770
    32,'EAST--02    ', 230.0000,1,   1,   2,   1,1.01565,  14.1694,1.04960,0.94960,1.04960,0.94960
    33,'EAST--03    ', 230.0000,1,   1,   2,   1,1.04061,  12.5146,1.04980,0.94980,1.04980,0.94980
   101,'NORTH-G1    ',  16.0000,2,   1,   1,   1,1.00000,  -2.9204,1.05000,0.95000,1.05000,0.95000
   111,'WEST--G1    ',  16.0000,2,   1,   1,   1,1.00000,  -9.1283,1.05000,0.95000,1.05000,0.95000
   231,'SOUTH-G1    ',  16.0000,3,   1,   2,   1,1.00000,   3.7537,1.05000,0.95000,1.05000,0.95000
   311,'EAST--G1    ',  16.0000,2,   1,   2,   1,1.00000,  24.3517,1.05000,0.95000,1.05000,0.95000
   312,'EAST--PV    ',  16.0000,2,   1,   2,   1,1.00740,  18.6549,1.10000,0.90000,1.10000,0.90000
 0 /End of Bus data, Begin Load data
     2,'1 ',1,   1,   1,   144.823,     0.000,     0.000,     0.000,     0.000,     0.000,   1,1,0
     3,'1 ',1,   1,   1,   229.258,     0.000,     0.000,     0.000,     0.000,     0.000,   1,1,0
    12,'1 ',1,   2,   1,   516.081,     0.000,     0.000,     0.000,     0.000,     0.000,   1,1,0
    13,'1 ',1,   2,   1,   488.799,     0.000,     0.000,     0.000,     0.000,     0.000,   1,1,0
    21,'1 ',1,   3,   2,   229.258,     0.000,     0.000,     0.000,     0.000,     0.000,   1,1,0
    23,'1 ',1,   3,   2,   229.258,     0.000,     0.000,     0.000,     0.000,     0.000,   1,1,0
    31,'1 ',1,   4,   2,   890.751,     0.000,     0.000,     0.000,     0.000,     0.000,   1,1,0
 0 /End of Load data, Begin Fixed shunt data
 0 /End of Fixed shunt data, Begin Generator data
   101,'H1',    00.000,       000,   500.000,  -500.000,1.00000,     0,   600.000, 0.00000E+0, 2.00000E-1, 0.00000E+0, 0.00000E+0,1.00000,1,   50.0,   600.000,     0.000,   1,1.0000
   311,'1 ',  1000.000,       000,   700.000,  -700.000,1.00000,     0,  1200.000, 5.00000E-3, 2.00000E-1, 0.00000E+0, 0.00000E+0,1.00000,1,  100.0,  1200.000,     0.000,   1,1.0000
   111,'1 ',       867,       000,   500.000,  -500.000,1.00000,     0,  1200.000, 0.00000E+0, 2.00000E-1, 0.00000E+0, 0.00000E+0,1.00000,1,  100.0,  1200.000,     0.000,   1,1.0000
   231,'1 ',       000,       000,   500.000,  -500.000,1.00000,     0,   600.000, 5.00000E-3, 2.00000E-1, 0.00000E+0, 0.00000E+0,1.00000,1,  100.0,   600.000,     0.000,   1,1.0000
   312,'PV',    1319.3,       000,   500.000,  -500.000,1.00000,     0,  1500.000, 0.00000E+0, 2.00000E-1, 0.00000E+0, 0.00000E+0,1.00000,1,  100.0,  1500.000,     0.000,   1,1.0000,    ,      ,    ,      ,    ,      ,3, 1.0000
   312,'ES',      -300,       000,   300.000,  -300.000,1.00000,     0,   150.000, 0.00000E+0, 2.00000E-1, 0.00000E+0, 0.00000E+0,1.00000,1,  100.0,   300.000,  -300.000,   1,1.0000,    ,      ,    ,      ,    ,      ,3, 1.0000
   101,'ES',    -144.7,       000,   150.000,  -150.000,1.00000,     0,   300.000, 0.00000E+0, 2.00000E-1, 0.00000E+0, 0.00000E+0,1.00000,1,  100.0,   150.000,  -150.000,   1,1.0000,    ,      ,    ,      ,    ,      ,3, 1.0000
 0 /End of Generator data, Begin Branch data
     1,     2,'1 ', 1.00000E-2, 5.00000E-2,   0.00000,  600.00,    0.00,    0.00,  0.00000,  0.00000,  0.00000,  0.00000,1,1,   1.00,   1,1.0000
     1,     3,'1 ', 1.00000E-2, 5.00000E-2,   0.00000,  600.00,    0.00,    0.00,  0.00000,  0.00000,  0.00000,  0.00000,1,1,   1.00,   1,1.0000
     2,     3,'1 ', 1.00000E-2, 5.00000E-2,   0.00000,  600.00,    0.00,    0.00,  0.00000,  0.00000,  0.00000,  0.00000,1,1,   1.00,   1,1.0000
     2,    12,'1 ', 2.00000E-2, 1.00000E-1,   0.10000,  600.00,    0.00,    0.00,  0.00000,  0.00000,  0.00000,  0.00000,1,1,   1.00,   1,1.0000
     2,    13,'1 ', 3.00000E-2, 1.50000E-1,   0.15000,  600.00,    0.00,    0.00,  0.00000,  0.00000,  0.00000,  0.00000,1,1,   1.00,   1,1.0000
     3,    21,'1 ', 2.00000E-2, 1.00000E-1,   0.10000,  600.00,    0.00,    0.00,  0.00000,  0.00000,  0.00000,  0.00000,1,1,   1.00,   1,1.0000
     3,    31,'1 ', 5.00000E-2, 2.50000E-1,   0.25000,  600.00,    0.00,    0.00,  0.00000,  0.00000,  0.00000,  0.00000,1,1,   1.00,   1,1.0000
    11,    12,'1 ', 1.00000E-2, 5.00000E-2,   0.00000,  600.00,    0.00,    0.00,  0.00000,  0.00000,  0.00000,  0.00000,1,1,   1.00,   1,1.0000
    11,    13,'1 ', 1.00000E-2, 5.00000E-2,   0.00000,  600.00,    0.00,    0.00,  0.00000,  0.00000,  0.00000,  0.00000,1,1,   1.00,   1,1.0000
    12,    13,'1 ', 1.00000E-2, 5.00000E-2,   0.00000,  600.00,    0.00,    0.00,  0.00000,  0.00000,  0.00000,  0.00000,1,1,   1.00,   1,1.0000
    14,    24,'1 ', 6.00000E-2, 2.00000E-1,   0.20000, 2000.00,    0.00,    0.00,  0.00000,  0.00000,  0.00000,  0.00000,1,1,   1.00,   1,1.0000
    21,    22,'1 ', 1.00000E-2, 5.00000E-2,   0.00000,  600.00,    0.00,    0.00,  0.00000,  0.00000,  0.00000,  0.00000,1,1,   1.00,   1,1.0000
    21,    23,'1 ', 1.00000E-2, 5.00000E-2,   0.00000,  600.00,    0.00,    0.00,  0.00000,  0.00000,  0.00000,  0.00000,1,1,   1.00,   1,1.0000
    21,    32,'1 ', 4.00000E-2, 2.00000E-1,   0.20000,  600.00,    0.00,    0.00,  0.00000,  0.00000,  0.00000,  0.00000,1,1,   1.00,   1,1.0000
    22,    23,'1 ', 1.00000E-2, 5.00000E-2,   0.00000,  600.00,    0.00,    0.00,  0.00000,  0.00000,  0.00000,  0.00000,1,1,   1.00,   1,1.0000
    23,    33,'1 ', 2.00000E-2, 1.00000E-1,   0.10000,  600.00,    0.00,    0.00,  0.00000,  0.00000,  0.00000,  0.00000,1,1,   1.00,   1,1.0000
    31,    32,'1 ', 1.00000E-2, 5.00000E-2,   0.00000,  600.00,    0.00,    0.00,  0.00000,  0.00000,  0.00000,  0.00000,1,1,   1.00,   1,1.0000
    31,    33,'1 ', 1.00000E-2, 5.00000E-2,   0.00000,  600.00,    0.00,    0.00,  0.00000,  0.00000,  0.00000,  0.00000,1,1,   1.00,   1,1.0000
 0 /End of Branch data, Begin Transformer data
     1,   101,     0,'1 ',2,2,1, 0.00000E+0, 0.00000E+0,2,'            ',1,   1,1.0000,   0,1.0000,   0,1.0000,   0,1.0000,'            '
 0.00000E+0, 1.00000E-1,   600.00
230.000, 230.000,   0.000,   600.00,     0.00,     0.00, 0,      0,345.0000,117.3000, 1.50000, 0.51000,  33, 0, 0.00000, 0.00000,  0.000
16.0000,  16.000
    11,   111,     0,'1 ',2,2,1, 0.00000E+0, 0.00000E+0,2,'            ',1,   1,1.0000,   0,1.0000,   0,1.0000,   0,1.0000,'            '
 0.00000E+0, 1.00000E-1,  1200.00
230.000, 230.000,   0.000,  1200.00,     0.00,     0.00, 0,      0,345.0000,117.3000, 1.50000, 0.51000,  33, 0, 0.00000, 0.00000,  0.000
16.0000,  16.000
    13,    14,     0,'1 ',2,2,1, 0.00000E+0, 0.00000E+0,2,'            ',1,   1,1.0000,   0,1.0000,   0,1.0000,   0,1.0000,'            '
 1.00000E-2, 5.00000E-2,   100.00
230.000, 230.000,   0.000,   100.00,     0.00,     0.00, 0,     13,345.0000,117.3000, 1.50000, 0.51000,  33, 0, 0.00000, 0.00000,  0.000
500.000, 500.000
    22,    24,     0,'1 ',2,2,1, 0.00000E+0, 0.00000E+0,2,'            ',1,   1,1.0000,   0,1.0000,   0,1.0000,   0,1.0000,'            '
 1.00000E-2, 5.00000E-2,   100.00
230.000, 230.000,   0.000,   100.00,     0.00,     0.00, 0,     22,345.0000,117.3000, 1.50000, 0.51000,  33, 0, 0.00000, 0.00000,  0.000
500.000, 500.000
    23,   231,     0,'1 ',2,2,1, 0.00000E+0, 0.00000E+0,2,'            ',1,   1,1.0000,   0,1.0000,   0,1.0000,   0,1.0000,'            '
 0.00000E+0, 1.00000E-1,   600.00
230.000, 230.000,   0.000,   600.00,     0.00,     0.00, 0,      0,345.0000,117.3000, 1.50000, 0.51000,  33, 0, 0.00000, 0.00000,  0.000
16.0000,  16.000
    31,   311,     0,'1 ',2,2,1, 0.00000E+0, 0.00000E+0,2,'            ',1,   1,1.0000,   0,1.0000,   0,1.0000,   0,1.0000,'            '
 0.00000E+0, 1.00000E-1,  1200.00
230.000, 230.000,   0.000,  1200.00,     0.00,     0.00, 0,      0,345.0000,117.3000, 1.50000, 0.51000,  33, 0, 0.00000, 0.00000,  0.000
16.0000,  16.000
    31,   312,     0,'1 ',2,1,1, 0.00000E+0, 0.00000E+0,2,'            ',1,   1,1.0000,   0,1.0000,   0,1.0000,   0,1.0000,'            '
 0.00000E+0, 1.00000E-4,   600.00
230.000, 230.000,   0.000,   600.00,     0.00,     0.00, 0,      0,345.0000,117.3000, 1.50000, 0.51000,  33, 0, 0.00000, 0.00000,  0.000
16.0000,  16.000
 0 /End of Transformer data, Begin Area interchange data
   1,   231,     0.000,     5.000,'AREA 1      '
   2,   111,     0.000,     5.000,'AREA 2      '
   3,   231,     0.000,     5.000,'AREA 3      '
   4,   311,     0.000,     5.000,'AREA 4      '
 0 /End of Area interchange data, Begin Two-terminal dc line data
 0 /End of Two-terminal dc line data, Begin VSC dc line data
 0 /End of VSC dc line data, Begin Impedance correction table data
 0 /End of Impedance correction table data, Begin Multi-terminal dc line data
 0 /End of Multi-terminal dc line data, Begin Multi-section line data
 0 /End of Multi-section line data, Begin Zone data
   1,'ZONE1       '
   2,'ZONE2       '
 0 /End of Zone data, Begin Inter-area transfer data
 0 /End of Inter-area transfer data, Begin Owner data
 0 /End of Owner data, Begin FACTS device data
 0 /End of FACTS device data, Begin Switched shunt data
     2,1,0,1,1.05000,0.98000,     0,  100.0,'            ',  100.00, 1,  100.00
    12,1,0,1,1.05000,0.98000,     0,  100.0,'            ',  300.00, 3,  100.00
    21,1,0,1,1.05000,0.98000,     0,  100.0,'            ',  300.00, 3,  100.00
    24,1,0,1,1.05000,0.98000,     0,  100.0,'            ',  100.00, 1,   50.00
    33,1,0,1,1.05000,0.98000,     0,  100.0,'            ',  100.00, 1,  100.00
 0 /End of Switched shunt data, Begin GNE device data
 0 /End of GNE device data, Begin Induction machine data
 0 /End of Induction machine data
Q
